<?xml version="1.0" encoding="UTF-8"?>

<!-- generated on 2023-04-17 17:34:16 by Eclipse SUMO netedit Version 1.16.0
<configuration xmlns:xsi="http://www.w3.org/2001/XMLSchema-instance" xsi:noNamespaceSchemaLocation="http://sumo.dlr.de/xsd/netconvertConfiguration.xsd">

    <input>
        <sumo-net-file value="/Users/rorycoulson/Documents/Year3/S2/COMP3200_IndividualProject/SUMO_EV/ev-sumo-marl/nets/berlin/berlin.net.xml"/>
    </input>

    <output>
        <output-file value="/Users/rorycoulson/Documents/Year3/S2/COMP3200_IndividualProject/SUMO_EV/ev-sumo-marl/nets/berlin/berlin.net.xml"/>
    </output>

    <processing>
        <geometry.min-radius.fix.railways value="false"/>
        <geometry.max-grade.fix value="false"/>
        <offset.disable-normalization value="true"/>
        <lefthand value="0"/>
    </processing>

    <junctions>
        <no-turnarounds value="true"/>
        <junctions.corner-detail value="5"/>
        <junctions.limit-turn-speed value="-1.00"/>
        <rectangular-lane-cut value="0"/>
    </junctions>

    <pedestrian>
        <walkingareas value="0"/>
    </pedestrian>

</configuration>
-->

<net version="1.16" junctionCornerDetail="5" xmlns:xsi="http://www.w3.org/2001/XMLSchema-instance" xsi:noNamespaceSchemaLocation="http://sumo.dlr.de/xsd/net_file.xsd">

    <location netOffset="-389242.16,-5817351.78" convBoundary="135.79,0.00,1182.46,2190.39" origBoundary="13.368337,52.495162,13.399610,52.514997" projParameter="+proj=utm +zone=33 +ellps=WGS84 +datum=WGS84 +units=m +no_defs"/>

    <type id="highway.bridleway" priority="1" numLanes="1" speed="2.78" allow="pedestrian" oneway="1" width="2.00"/>
    <type id="highway.bus_guideway" priority="1" numLanes="1" speed="27.78" allow="bus" oneway="1"/>
    <type id="highway.cycleway" priority="1" numLanes="1" speed="5.56" allow="bicycle" oneway="0" width="1.00"/>
    <type id="highway.footway" priority="1" numLanes="1" speed="2.78" allow="pedestrian" oneway="1" width="2.00"/>
    <type id="highway.ford" priority="1" numLanes="1" speed="2.78" allow="army" oneway="0"/>
    <type id="highway.living_street" priority="2" numLanes="1" speed="2.78" disallow="tram rail_urban rail rail_electric rail_fast ship" oneway="0"/>
    <type id="highway.motorway" priority="14" numLanes="2" speed="39.44" allow="private emergency authority army vip passenger hov taxi bus coach delivery truck trailer motorcycle evehicle custom1 custom2" oneway="1"/>
    <type id="highway.motorway_link" priority="9" numLanes="1" speed="22.22" allow="private emergency authority army vip passenger hov taxi bus coach delivery truck trailer motorcycle evehicle custom1 custom2" oneway="1"/>
    <type id="highway.path" priority="1" numLanes="1" speed="5.56" allow="pedestrian bicycle" oneway="0" width="2.00"/>
    <type id="highway.pedestrian" priority="1" numLanes="1" speed="2.78" allow="pedestrian" oneway="1" width="2.00"/>
    <type id="highway.primary" priority="12" numLanes="2" speed="27.78" disallow="tram rail_urban rail rail_electric rail_fast ship" oneway="0"/>
    <type id="highway.primary_link" priority="7" numLanes="1" speed="22.22" disallow="tram rail_urban rail rail_electric rail_fast ship" oneway="0"/>
    <type id="highway.raceway" priority="15" numLanes="2" speed="83.33" allow="vip" oneway="0"/>
    <type id="highway.residential" priority="3" numLanes="1" speed="13.89" disallow="tram rail_urban rail rail_electric rail_fast ship" oneway="0"/>
    <type id="highway.secondary" priority="11" numLanes="1" speed="27.78" disallow="tram rail_urban rail rail_electric rail_fast ship" oneway="0"/>
    <type id="highway.secondary_link" priority="6" numLanes="1" speed="22.22" disallow="tram rail_urban rail rail_electric rail_fast ship" oneway="0"/>
    <type id="highway.service" priority="1" numLanes="1" speed="5.56" disallow="tram rail_urban rail rail_electric rail_fast ship" oneway="0"/>
    <type id="highway.stairs" priority="1" numLanes="1" speed="1.39" allow="pedestrian" oneway="1" width="2.00"/>
    <type id="highway.step" priority="1" numLanes="1" speed="1.39" allow="pedestrian" oneway="1" width="2.00"/>
    <type id="highway.steps" priority="1" numLanes="1" speed="1.39" allow="pedestrian" oneway="1" width="2.00"/>
    <type id="highway.tertiary" priority="10" numLanes="1" speed="22.22" disallow="tram rail_urban rail rail_electric rail_fast ship" oneway="0"/>
    <type id="highway.tertiary_link" priority="5" numLanes="1" speed="22.22" disallow="tram rail_urban rail rail_electric rail_fast ship" oneway="0"/>
    <type id="highway.track" priority="1" numLanes="1" speed="5.56" allow="pedestrian motorcycle moped bicycle" oneway="0"/>
    <type id="highway.trunk" priority="13" numLanes="2" speed="27.78" disallow="pedestrian bicycle tram rail_urban rail rail_electric rail_fast ship" oneway="0"/>
    <type id="highway.trunk_link" priority="8" numLanes="1" speed="22.22" disallow="pedestrian bicycle tram rail_urban rail rail_electric rail_fast ship" oneway="0"/>
    <type id="highway.unclassified" priority="4" numLanes="1" speed="13.89" disallow="tram rail_urban rail rail_electric rail_fast ship" oneway="0"/>
    <type id="highway.unsurfaced" priority="1" numLanes="1" speed="8.33" disallow="tram rail_urban rail rail_electric rail_fast ship" oneway="0"/>
    <type id="railway.highspeed" priority="21" numLanes="1" speed="69.44" allow="rail_fast" oneway="1"/>
    <type id="railway.light_rail" priority="19" numLanes="1" speed="27.78" allow="rail_urban" oneway="1"/>
    <type id="railway.preserved" priority="16" numLanes="1" speed="27.78" allow="rail" oneway="1"/>
    <type id="railway.rail" priority="20" numLanes="1" speed="44.44" allow="rail" oneway="1"/>
    <type id="railway.subway" priority="18" numLanes="1" speed="27.78" allow="rail_urban" oneway="1"/>
    <type id="railway.tram" priority="17" numLanes="1" speed="13.89" allow="tram" oneway="1"/>

    <edge id=":10162065315_0" function="internal">
        <lane id=":10162065315_0_0" index="0" disallow="tram rail_urban rail rail_electric rail_fast ship" speed="13.89" length="0.29" shape="702.29,1675.85 702.59,1675.87"/>
    </edge>
    <edge id=":10162088335_0" function="internal">
        <lane id=":10162088335_0_0" index="0" disallow="tram rail_urban rail rail_electric rail_fast ship" speed="13.89" length="0.10" shape="1014.98,1933.22 1014.98,1933.22"/>
    </edge>
    <edge id=":10162088335_1" function="internal">
        <lane id=":10162088335_1_0" index="0" disallow="tram rail_urban rail rail_electric rail_fast ship" speed="13.89" length="0.10" shape="1011.92,1932.32 1011.92,1932.32"/>
    </edge>
    <edge id=":10162096900_0" function="internal">
        <lane id=":10162096900_0_0" index="0" disallow="tram rail_urban rail rail_electric rail_fast ship" speed="13.89" length="0.30" shape="673.77,1673.65 674.07,1673.67"/>
    </edge>
    <edge id=":10162130021_0" function="internal">
        <lane id=":10162130021_0_0" index="0" disallow="tram rail_urban rail rail_electric rail_fast ship" speed="13.89" length="0.10" shape="1066.05,1763.89 1066.05,1763.89"/>
    </edge>
    <edge id=":10162130021_1" function="internal">
        <lane id=":10162130021_1_0" index="0" disallow="tram rail_urban rail rail_electric rail_fast ship" speed="13.89" length="0.10" shape="1062.99,1762.93 1062.99,1762.93"/>
    </edge>
    <edge id=":10162133064_0" function="internal">
        <lane id=":10162133064_0_0" index="0" disallow="tram rail_urban rail rail_electric rail_fast ship" speed="13.89" length="2.85" shape="669.43,1672.60 670.22,1672.92 670.75,1673.19 671.29,1673.40 672.11,1673.52"/>
    </edge>
    <edge id=":10162133710_0" function="internal">
        <lane id=":10162133710_0_0" index="0" disallow="tram rail_urban rail rail_electric rail_fast ship" speed="13.89" length="0.10" shape="1041.03,1846.64 1041.03,1846.64"/>
    </edge>
    <edge id=":10162133710_1" function="internal">
        <lane id=":10162133710_1_0" index="0" disallow="tram rail_urban rail rail_electric rail_fast ship" speed="13.89" length="0.10" shape="1037.97,1845.70 1037.97,1845.70"/>
    </edge>
    <edge id=":10162133711_0" function="internal">
        <lane id=":10162133711_0_0" index="0" disallow="tram rail_urban rail rail_electric rail_fast ship" speed="13.89" length="0.10" shape="1072.25,1744.21 1072.25,1744.21"/>
    </edge>
    <edge id=":10162133711_1" function="internal">
        <lane id=":10162133711_1_0" index="0" disallow="tram rail_urban rail rail_electric rail_fast ship" speed="13.89" length="0.10" shape="1069.19,1743.25 1069.19,1743.25"/>
    </edge>
    <edge id=":10162134086_0" function="internal">
        <lane id=":10162134086_0_0" index="0" disallow="tram rail_urban rail rail_electric rail_fast ship" speed="13.89" length="0.10" shape="1036.95,1860.01 1036.95,1860.01"/>
    </edge>
    <edge id=":10162134086_1" function="internal">
        <lane id=":10162134086_1_0" index="0" disallow="tram rail_urban rail rail_electric rail_fast ship" speed="13.89" length="0.10" shape="1033.89,1859.07 1033.89,1859.07"/>
    </edge>
    <edge id=":10162167218_0" function="internal">
        <lane id=":10162167218_0_0" index="0" disallow="tram rail_urban rail rail_electric rail_fast ship" speed="13.89" length="0.30" shape="688.82,1674.74 689.12,1674.76"/>
    </edge>
    <edge id=":10162181053_0" function="internal">
        <lane id=":10162181053_0_0" index="0" disallow="tram rail_urban rail rail_electric rail_fast ship" speed="13.89" length="0.10" shape="631.45,2054.01 631.45,2054.01"/>
        <lane id=":10162181053_0_1" index="1" disallow="tram rail_urban rail rail_electric rail_fast ship" speed="13.89" length="0.10" shape="634.61,2053.53 634.61,2053.53"/>
    </edge>
    <edge id=":10186476036_0" function="internal">
        <lane id=":10186476036_0_0" index="0" disallow="tram rail_urban rail rail_electric rail_fast ship" speed="13.89" length="0.30" shape="617.66,1934.87 617.65,1934.59"/>
        <lane id=":10186476036_0_1" index="1" disallow="tram rail_urban rail rail_electric rail_fast ship" speed="13.89" length="0.30" shape="620.86,1934.73 620.84,1934.43"/>
        <lane id=":10186476036_0_2" index="2" disallow="tram rail_urban rail rail_electric rail_fast ship" speed="13.89" length="0.30" shape="624.05,1934.58 624.04,1934.27"/>
    </edge>
    <edge id=":10186476037_0" function="internal">
        <lane id=":10186476037_0_0" index="0" disallow="pedestrian tram rail_urban rail rail_electric rail_fast ship" speed="13.89" length="0.30" shape="635.64,1934.02 635.65,1934.33"/>
        <lane id=":10186476037_0_1" index="1" disallow="pedestrian tram rail_urban rail rail_electric rail_fast ship" speed="13.89" length="0.30" shape="632.44,1934.15 632.46,1934.45"/>
        <lane id=":10186476037_0_2" index="2" disallow="pedestrian tram rail_urban rail rail_electric rail_fast ship" speed="13.89" length="0.30" shape="629.25,1934.28 629.26,1934.57"/>
    </edge>
    <edge id=":102265266_0" function="internal">
        <lane id=":102265266_0_0" index="0" disallow="tram rail_urban rail rail_electric rail_fast ship" speed="8.33" length="9.16" shape="466.59,1318.61 465.44,1316.42 463.84,1315.12 461.80,1314.70 459.30,1315.16"/>
    </edge>
    <edge id=":102265266_1" function="internal">
        <lane id=":102265266_1_0" index="0" disallow="tram rail_urban rail rail_electric rail_fast ship" speed="8.33" length="14.42" shape="466.59,1318.61 461.71,1305.04"/>
    </edge>
    <edge id=":102265266_2" function="internal">
        <lane id=":102265266_2_0" index="0" disallow="tram rail_urban rail rail_electric rail_fast ship" speed="8.33" length="14.47" shape="464.72,1303.93 469.61,1317.55"/>
    </edge>
    <edge id=":102265266_3" function="internal">
        <lane id=":102265266_3_0" index="0" disallow="tram rail_urban rail rail_electric rail_fast ship" speed="8.33" length="4.14" shape="464.72,1303.93 465.53,1307.79 465.49,1307.99"/>
    </edge>
    <edge id=":102265266_7" function="internal">
        <lane id=":102265266_7_0" index="0" disallow="tram rail_urban rail rail_electric rail_fast ship" speed="8.33" length="10.17" shape="465.49,1307.99 464.91,1310.94 462.83,1313.40 459.30,1315.16"/>
    </edge>
    <edge id=":102265266_4" function="internal">
        <lane id=":102265266_4_0" index="0" disallow="tram rail_urban rail rail_electric rail_fast ship" speed="8.33" length="9.03" shape="458.30,1312.12 460.52,1311.01 461.83,1309.46 462.23,1307.47 461.71,1305.04"/>
    </edge>
    <edge id=":102265266_5" function="internal">
        <lane id=":102265266_5_0" index="0" disallow="tram rail_urban rail rail_electric rail_fast ship" speed="8.33" length="14.25" shape="458.30,1312.12 462.16,1311.41 465.33,1312.08 467.82,1314.13 469.61,1317.55"/>
    </edge>
    <edge id=":102265266_6" function="internal">
        <lane id=":102265266_6_0" index="0" disallow="tram rail_urban rail rail_electric rail_fast ship" speed="8.33" length="4.67" shape="458.30,1312.12 459.69,1312.50 460.32,1313.14 460.19,1314.02 459.30,1315.16"/>
    </edge>
    <edge id=":102265481_0" function="internal">
        <lane id=":102265481_0_0" index="0" disallow="tram rail_urban rail rail_electric rail_fast ship" speed="4.67" length="9.20" shape="488.48,1384.92 487.57,1382.31 486.23,1381.17 484.45,1381.50 482.22,1383.30"/>
    </edge>
    <edge id=":102265481_1" function="internal">
        <lane id=":102265481_1_0" index="0" disallow="tram rail_urban rail rail_electric rail_fast ship" speed="8.33" length="16.95" shape="488.48,1384.92 487.12,1380.88 484.86,1377.54 481.69,1374.89 477.61,1372.94"/>
    </edge>
    <edge id=":102265481_2" function="internal">
        <lane id=":102265481_2_0" index="0" allow="delivery bicycle" speed="6.95" length="20.02" shape="488.48,1384.92 487.44,1380.51 486.00,1375.22 484.43,1369.97 483.00,1365.67"/>
    </edge>
    <edge id=":102265481_3" function="internal">
        <lane id=":102265481_3_0" index="0" disallow="tram rail_urban rail rail_electric rail_fast ship" speed="8.33" length="20.03" shape="488.48,1384.92 487.45,1380.50 486.03,1375.21 484.49,1369.95 483.09,1365.64"/>
    </edge>
    <edge id=":102265481_4" function="internal">
        <lane id=":102265481_4_0" index="0" allow="delivery bicycle" speed="6.95" length="3.05" shape="488.48,1384.92 488.78,1383.19 489.72,1382.30"/>
    </edge>
    <edge id=":102265481_28" function="internal">
        <lane id=":102265481_28_0" index="0" allow="delivery bicycle" speed="6.95" length="3.44" shape="489.72,1382.30 490.02,1382.02 491.52,1381.78 492.61,1382.82"/>
    </edge>
    <edge id=":102265481_5" function="internal">
        <lane id=":102265481_5_0" index="0" allow="delivery bicycle" speed="3.28" length="9.71" shape="489.59,1383.89 488.32,1381.61 486.66,1380.75 484.63,1381.31 482.22,1383.30"/>
    </edge>
    <edge id=":102265481_6" function="internal">
        <lane id=":102265481_6_0" index="0" allow="delivery bicycle" speed="6.95" length="16.78" shape="489.59,1383.89 487.80,1380.32 485.20,1377.30 481.80,1374.84 477.61,1372.94"/>
    </edge>
    <edge id=":102265481_7" function="internal">
        <lane id=":102265481_7_0" index="0" allow="delivery bicycle" speed="5.56" length="19.38" shape="489.59,1383.89 483.00,1365.67"/>
    </edge>
    <edge id=":102265481_8" function="internal">
        <lane id=":102265481_8_0" index="0" allow="delivery bicycle" speed="6.95" length="19.38" shape="489.59,1383.89 483.09,1365.64"/>
    </edge>
    <edge id=":102265481_9" function="internal">
        <lane id=":102265481_9_0" index="0" allow="delivery bicycle" speed="5.56" length="4.67" shape="489.59,1383.89 489.94,1382.50 490.56,1381.85 491.45,1381.96 492.61,1382.82"/>
    </edge>
    <edge id=":102265481_10" function="internal">
        <lane id=":102265481_10_0" index="0" allow="delivery bicycle" speed="6.95" length="6.65" shape="489.59,1383.89 489.76,1382.37 491.10,1381.61 492.85,1381.75 494.24,1382.92"/>
    </edge>
    <edge id=":102265481_11" function="internal">
        <lane id=":102265481_11_0" index="0" allow="delivery bicycle" speed="6.95" length="19.37" shape="486.11,1364.58 492.61,1382.82"/>
    </edge>
    <edge id=":102265481_12" function="internal">
        <lane id=":102265481_12_0" index="0" disallow="tram rail_urban rail rail_electric rail_fast ship" speed="8.33" length="20.07" shape="486.11,1364.58 487.74,1368.82 489.89,1373.87 492.19,1378.87 494.24,1382.92"/>
    </edge>
    <edge id=":102265481_13" function="internal">
        <lane id=":102265481_13_0" index="0" disallow="tram rail_urban rail rail_electric rail_fast ship" speed="4.67" length="5.93" shape="486.11,1364.58 487.28,1369.78 487.25,1370.37"/>
    </edge>
    <edge id=":102265481_14" function="internal">
        <lane id=":102265481_14_0" index="0" disallow="tram rail_urban rail rail_electric rail_fast ship" speed="8.33" length="5.63" shape="486.11,1364.58 487.29,1369.97 487.25,1370.07"/>
    </edge>
    <edge id=":102265481_15" function="internal">
        <lane id=":102265481_15_0" index="0" allow="delivery bicycle" speed="6.95" length="1.71" shape="486.11,1364.58 484.50,1365.15"/>
    </edge>
    <edge id=":102265481_29" function="internal">
        <lane id=":102265481_29_0" index="0" disallow="tram rail_urban rail rail_electric rail_fast ship" speed="4.67" length="14.28" shape="487.25,1370.37 487.03,1374.64 485.34,1379.14 482.22,1383.30"/>
    </edge>
    <edge id=":102265481_30" function="internal">
        <lane id=":102265481_30_0" index="0" disallow="tram rail_urban rail rail_electric rail_fast ship" speed="8.33" length="12.17" shape="487.25,1370.07 486.26,1373.16 483.03,1374.15 477.61,1372.94"/>
    </edge>
    <edge id=":102265481_31" function="internal">
        <lane id=":102265481_31_0" index="0" allow="delivery bicycle" speed="6.95" length="1.59" shape="484.50,1365.15 483.00,1365.67"/>
    </edge>
    <edge id=":102265481_16" function="internal">
        <lane id=":102265481_16_0" index="0" allow="delivery bicycle" speed="5.56" length="19.37" shape="486.02,1364.61 492.61,1382.82"/>
    </edge>
    <edge id=":102265481_17" function="internal">
        <lane id=":102265481_17_0" index="0" allow="delivery bicycle" speed="6.95" length="20.08" shape="486.02,1364.61 487.68,1368.84 489.87,1373.88 492.18,1378.87 494.24,1382.92"/>
    </edge>
    <edge id=":102265481_18" function="internal">
        <lane id=":102265481_18_0" index="0" allow="delivery bicycle" speed="3.28" length="20.17" shape="486.02,1364.61 487.24,1369.80 487.01,1374.64 485.34,1379.14 482.22,1383.30"/>
    </edge>
    <edge id=":102265481_19" function="internal">
        <lane id=":102265481_19_0" index="0" allow="delivery bicycle" speed="6.95" length="17.78" shape="486.02,1364.61 487.25,1369.99 486.26,1373.17 483.04,1374.16 477.61,1372.94"/>
    </edge>
    <edge id=":102265481_20" function="internal">
        <lane id=":102265481_20_0" index="0" allow="delivery bicycle" speed="5.56" length="4.67" shape="486.02,1364.61 485.66,1366.01 485.04,1366.65 484.15,1366.54 483.00,1365.67"/>
    </edge>
    <edge id=":102265481_21" function="internal">
        <lane id=":102265481_21_0" index="0" allow="delivery bicycle" speed="6.95" length="3.10" shape="486.02,1364.61 483.09,1365.64"/>
    </edge>
    <edge id=":102265481_22" function="internal">
        <lane id=":102265481_22_0" index="0" allow="delivery bicycle" speed="6.95" length="9.37" shape="478.56,1370.24 481.42,1370.78 483.11,1370.19 483.64,1368.49 483.00,1365.67"/>
    </edge>
    <edge id=":102265481_23" function="internal">
        <lane id=":102265481_23_0" index="0" disallow="tram rail_urban rail rail_electric rail_fast ship" speed="8.33" length="9.44" shape="478.56,1370.24 481.44,1370.78 483.15,1370.19 483.70,1368.48 483.09,1365.64"/>
    </edge>
    <edge id=":102265481_24" function="internal">
        <lane id=":102265481_24_0" index="0" allow="delivery bicycle" speed="6.95" length="19.55" shape="478.56,1370.24 483.46,1372.30 487.44,1375.09 490.48,1378.60 492.61,1382.82"/>
    </edge>
    <edge id=":102265481_25" function="internal">
        <lane id=":102265481_25_0" index="0" disallow="tram rail_urban rail rail_electric rail_fast ship" speed="8.33" length="20.42" shape="478.56,1370.24 482.68,1372.24 487.29,1375.50 491.44,1379.30 494.24,1382.92"/>
    </edge>
    <edge id=":102265481_26" function="internal">
        <lane id=":102265481_26_0" index="0" disallow="tram rail_urban rail rail_electric rail_fast ship" speed="4.67" length="17.93" shape="478.56,1370.24 483.45,1372.54 485.69,1375.48 485.28,1379.07 482.22,1383.30"/>
    </edge>
    <edge id=":102265481_27" function="internal">
        <lane id=":102265481_27_0" index="0" disallow="tram rail_urban rail rail_electric rail_fast ship" speed="8.33" length="4.18" shape="478.56,1370.24 479.34,1371.28 479.43,1372.07 478.86,1372.63 477.61,1372.94"/>
    </edge>
    <edge id=":102265951_0" function="internal">
        <lane id=":102265951_0_0" index="0" disallow="tram rail_urban rail rail_electric rail_fast ship" speed="8.33" length="9.53" shape="443.32,1254.93 442.12,1252.77 440.42,1251.51 438.24,1251.15 435.56,1251.68"/>
    </edge>
    <edge id=":102265951_1" function="internal">
        <lane id=":102265951_1_0" index="0" disallow="tram rail_urban rail rail_electric rail_fast ship" speed="8.33" length="14.59" shape="443.32,1254.93 441.99,1251.49 440.58,1248.17 439.06,1244.90 437.41,1241.60"/>
    </edge>
    <edge id=":102265951_2" function="internal">
        <lane id=":102265951_2_0" index="0" disallow="tram rail_urban rail rail_electric rail_fast ship" speed="8.33" length="15.08" shape="441.87,1239.42 442.85,1243.05 443.92,1246.68 445.08,1250.28 446.32,1253.83"/>
    </edge>
    <edge id=":102265951_3" function="internal">
        <lane id=":102265951_3_0" index="0" disallow="tram rail_urban rail rail_electric rail_fast ship" speed="8.33" length="5.89" shape="441.87,1239.42 442.38,1243.68 441.98,1245.23"/>
    </edge>
    <edge id=":102265951_7" function="internal">
        <lane id=":102265951_7_0" index="0" disallow="tram rail_urban rail rail_electric rail_fast ship" speed="8.33" length="9.60" shape="441.98,1245.23 441.49,1247.15 439.22,1249.82 435.56,1251.68"/>
    </edge>
    <edge id=":102265951_4" function="internal">
        <lane id=":102265951_4_0" index="0" disallow="tram rail_urban rail rail_electric rail_fast ship" speed="8.33" length="9.02" shape="434.54,1248.65 436.80,1247.51 438.04,1245.95 438.24,1243.98 437.41,1241.60"/>
    </edge>
    <edge id=":102265951_5" function="internal">
        <lane id=":102265951_5_0" index="0" disallow="tram rail_urban rail rail_electric rail_fast ship" speed="8.33" length="14.59" shape="434.54,1248.65 438.57,1247.86 441.88,1248.46 444.47,1250.45 446.32,1253.83"/>
    </edge>
    <edge id=":102265951_6" function="internal">
        <lane id=":102265951_6_0" index="0" disallow="tram rail_urban rail rail_electric rail_fast ship" speed="8.33" length="4.67" shape="434.54,1248.65 435.93,1249.02 436.57,1249.65 436.44,1250.54 435.56,1251.68"/>
    </edge>
    <edge id=":10226874045_0" function="internal">
        <lane id=":10226874045_0_0" index="0" disallow="tram rail_urban rail rail_electric rail_fast ship" speed="5.56" length="4.67" shape="845.85,2190.85 844.74,2191.77 843.86,2191.92 843.21,2191.31 842.79,2189.93"/>
    </edge>
    <edge id=":10284428701_0" function="internal">
        <lane id=":10284428701_0_0" index="0" disallow="tram rail_urban rail rail_electric rail_fast ship" speed="8.33" length="0.30" shape="420.87,1476.62 420.62,1476.45"/>
    </edge>
    <edge id=":10284428701_1" function="internal">
        <lane id=":10284428701_1_0" index="0" disallow="tram rail_urban rail rail_electric rail_fast ship" speed="8.33" length="0.30" shape="422.47,1473.84 422.72,1474.01"/>
    </edge>
    <edge id=":10284428702_0" function="internal">
        <lane id=":10284428702_0_0" index="0" disallow="tram rail_urban rail rail_electric rail_fast ship" speed="8.33" length="0.29" shape="440.24,1490.53 440.01,1490.36"/>
    </edge>
    <edge id=":10284428702_1" function="internal">
        <lane id=":10284428702_1_0" index="0" disallow="tram rail_urban rail rail_electric rail_fast ship" speed="8.33" length="0.30" shape="441.87,1487.76 442.12,1487.94"/>
    </edge>
    <edge id=":10284766166_0" function="internal">
        <lane id=":10284766166_0_0" index="0" disallow="tram rail_urban rail rail_electric rail_fast ship" speed="13.89" length="9.40" shape="695.90,1397.14 690.35,1404.73"/>
        <lane id=":10284766166_0_1" index="1" disallow="tram rail_urban rail rail_electric rail_fast ship" speed="13.89" length="9.40" shape="693.31,1395.25 687.77,1402.85"/>
    </edge>
    <edge id=":10284766166_2" function="internal">
        <lane id=":10284766166_2_0" index="0" disallow="tram rail_urban rail rail_electric rail_fast ship" speed="9.72" length="7.80" shape="693.31,1395.25 691.54,1397.35 689.90,1398.60 688.40,1398.99 687.04,1398.52"/>
    </edge>
    <edge id=":10284766166_3" function="internal">
        <lane id=":10284766166_3_0" index="0" disallow="tram rail_urban rail rail_electric rail_fast ship" speed="9.72" length="7.83" shape="688.86,1395.89 689.79,1397.01 689.91,1398.55 689.24,1400.49 687.77,1402.85"/>
    </edge>
    <edge id=":10284766166_4" function="internal">
        <lane id=":10284766166_4_0" index="0" disallow="tram rail_urban rail rail_electric rail_fast ship" speed="5.56" length="4.67" shape="688.86,1395.89 689.39,1397.23 689.27,1398.12 688.48,1398.55 687.04,1398.52"/>
    </edge>
    <edge id=":10284766167_0" function="internal">
        <lane id=":10284766167_0_0" index="0" disallow="tram rail_urban rail rail_electric rail_fast ship" speed="9.72" length="7.81" shape="686.49,1398.14 685.57,1397.02 685.44,1395.49 686.11,1393.55 687.57,1391.19"/>
    </edge>
    <edge id=":10284766167_1" function="internal">
        <lane id=":10284766167_1_0" index="0" disallow="tram rail_urban rail rail_electric rail_fast ship" speed="5.56" length="4.67" shape="686.49,1398.14 685.96,1396.80 686.08,1395.91 686.87,1395.48 688.31,1395.51"/>
    </edge>
    <edge id=":10284766167_2" function="internal">
        <lane id=":10284766167_2_0" index="0" disallow="tram rail_urban rail rail_electric rail_fast ship" speed="13.89" length="9.40" shape="679.47,1396.92 684.98,1389.31"/>
        <lane id=":10284766167_2_1" index="1" disallow="tram rail_urban rail rail_electric rail_fast ship" speed="13.89" length="9.40" shape="682.06,1398.80 687.57,1391.19"/>
    </edge>
    <edge id=":10284766167_4" function="internal">
        <lane id=":10284766167_4_0" index="0" disallow="tram rail_urban rail rail_electric rail_fast ship" speed="9.72" length="7.79" shape="682.06,1398.80 683.83,1396.69 685.46,1395.44 686.95,1395.05 688.31,1395.51"/>
    </edge>
    <edge id=":10284766168_0" function="internal">
        <lane id=":10284766168_0_0" index="0" disallow="tram rail_urban rail rail_electric rail_fast ship" speed="5.56" length="4.67" shape="717.66,1380.64 718.16,1381.99 718.01,1382.87 717.22,1383.28 715.78,1383.22"/>
    </edge>
    <edge id=":10284766169_0" function="internal">
        <lane id=":10284766169_0_0" index="0" disallow="tram rail_urban rail rail_electric rail_fast ship" speed="9.72" length="9.02" shape="713.95,1381.89 711.77,1380.74 709.74,1380.56 707.86,1381.35 706.13,1383.12"/>
    </edge>
    <edge id=":10284766169_1" function="internal">
        <lane id=":10284766169_1_0" index="0" disallow="tram rail_urban rail rail_electric rail_fast ship" speed="5.56" length="4.67" shape="713.95,1381.89 713.45,1380.54 713.60,1379.66 714.39,1379.25 715.83,1379.31"/>
    </edge>
    <edge id=":10284766169_2" function="internal">
        <lane id=":10284766169_2_0" index="0" disallow="tram rail_urban rail rail_electric rail_fast ship" speed="9.72" length="9.06" shape="714.48,1371.44 713.37,1373.64 713.22,1375.69 714.05,1377.58 715.83,1379.31"/>
    </edge>
    <edge id=":10284766169_3" function="internal">
        <lane id=":10284766169_3_0" index="0" disallow="tram rail_urban rail rail_electric rail_fast ship" speed="13.89" length="14.32" shape="714.48,1371.44 706.13,1383.12"/>
        <lane id=":10284766169_3_1" index="1" disallow="tram rail_urban rail rail_electric rail_fast ship" speed="13.89" length="14.32" shape="711.86,1369.61 703.55,1381.23"/>
    </edge>
    <edge id=":10284766177_0" function="internal">
        <lane id=":10284766177_0_0" index="0" disallow="tram rail_urban rail rail_electric rail_fast ship" speed="13.89" length="0.30" shape="736.78,1320.15 736.96,1319.91"/>
        <lane id=":10284766177_0_1" index="1" disallow="tram rail_urban rail rail_electric rail_fast ship" speed="13.89" length="0.30" shape="739.32,1322.09 739.50,1321.86"/>
    </edge>
    <edge id=":10284766194_0" function="internal">
        <lane id=":10284766194_0_0" index="0" disallow="tram rail_urban rail rail_electric rail_fast ship" speed="9.72" length="7.77" shape="801.26,1241.30 800.42,1240.15 800.36,1238.62 801.10,1236.70 802.61,1234.40"/>
    </edge>
    <edge id=":10284766194_1" function="internal">
        <lane id=":10284766194_1_0" index="0" disallow="tram rail_urban rail rail_electric rail_fast ship" speed="5.56" length="4.67" shape="801.26,1241.30 800.80,1239.93 800.96,1239.05 801.77,1238.66 803.21,1238.75"/>
    </edge>
    <edge id=":10284766194_2" function="internal">
        <lane id=":10284766194_2_0" index="0" disallow="tram rail_urban rail rail_electric rail_fast ship" speed="13.89" length="9.41" shape="796.92,1241.88 802.61,1234.40"/>
    </edge>
    <edge id=":10284766194_3" function="internal">
        <lane id=":10284766194_3_0" index="0" disallow="tram rail_urban rail rail_electric rail_fast ship" speed="9.72" length="7.77" shape="796.92,1241.88 798.74,1239.80 800.39,1238.59 801.88,1238.24 803.21,1238.75"/>
    </edge>
    <edge id=":10284766195_0" function="internal">
        <lane id=":10284766195_0_0" index="0" disallow="pedestrian tram rail_urban rail rail_electric rail_fast ship" speed="13.89" length="9.40" shape="808.43,1238.83 802.80,1246.35"/>