<?xml version="1.0" encoding="UTF-8"?>

<!-- generated on 2023-04-18 10:03:56 by Eclipse SUMO netedit Version 1.16.0
<configuration xmlns:xsi="http://www.w3.org/2001/XMLSchema-instance" xsi:noNamespaceSchemaLocation="http://sumo.dlr.de/xsd/netconvertConfiguration.xsd">

    <input>
        <sumo-net-file value="/Users/rorycoulson/Documents/Year3/S2/COMP3200_IndividualProject/SUMO_EV/ev-sumo-marl/nets/4x4_grid/4x4_grid.net.xml"/>
    </input>

    <output>
        <output-file value="/Users/rorycoulson/Documents/Year3/S2/COMP3200_IndividualProject/SUMO_EV/ev-sumo-marl/nets/4x4_grid/4x4_grid.net.xml"/>
    </output>

    <processing>
        <geometry.min-radius.fix.railways value="false"/>
        <geometry.max-grade.fix value="false"/>
        <offset.disable-normalization value="true"/>
        <lefthand value="0"/>
    </processing>

    <junctions>
        <no-turnarounds value="true"/>
        <junctions.corner-detail value="5"/>
        <junctions.limit-turn-speed value="5.50"/>
        <rectangular-lane-cut value="0"/>
    </junctions>

    <pedestrian>
        <walkingareas value="0"/>
    </pedestrian>

</configuration>
-->

<net version="1.16" junctionCornerDetail="5" limitTurnSpeed="5.50" xmlns:xsi="http://www.w3.org/2001/XMLSchema-instance" xsi:noNamespaceSchemaLocation="http://sumo.dlr.de/xsd/net_file.xsd">

    <location netOffset="0.00,0.00" convBoundary="-100.00,-300.00,400.00,200.00" origBoundary="-10000000000.00,-10000000000.00,10000000000.00,10000000000.00" projParameter="!"/>

    <edge id=":J1_0" function="internal">
        <lane id=":J1_0_0" index="0" speed="6.51" length="9.03" shape="-1.60,107.20 -1.95,104.75 -3.00,103.00 -4.75,101.95 -7.20,101.60"/>
    </edge>
    <edge id=":J1_1" function="internal">
        <lane id=":J1_1_0" index="0" speed="13.89" length="14.40" shape="-1.60,107.20 -1.60,92.80"/>
    </edge>
    <edge id=":J1_2" function="internal">
        <lane id=":J1_2_0" index="0" speed="8.00" length="4.07" shape="-1.60,107.20 -1.05,103.35 -0.96,103.20"/>
    </edge>
    <edge id=":J1_12" function="internal">
        <lane id=":J1_12_0" index="0" speed="8.00" length="10.13" shape="-0.96,103.20 0.60,100.60 3.35,98.95 7.20,98.40"/>
    </edge>
    <edge id=":J1_3" function="internal">
        <lane id=":J1_3_0" index="0" speed="6.51" length="9.03" shape="7.20,101.60 4.75,101.95 3.00,103.00 1.95,104.75 1.60,107.20"/>
    </edge>
    <edge id=":J1_4" function="internal">
        <lane id=":J1_4_0" index="0" speed="13.89" length="14.40" shape="7.20,101.60 -7.20,101.60"/>
    </edge>
    <edge id=":J1_5" function="internal">
        <lane id=":J1_5_0" index="0" speed="8.00" length="14.19" shape="7.20,101.60 3.35,101.05 0.60,99.40 -1.05,96.65 -1.60,92.80"/>
    </edge>
    <edge id=":J1_6" function="internal">
        <lane id=":J1_6_0" index="0" speed="6.51" length="9.03" shape="1.60,92.80 1.95,95.25 3.00,97.00 4.75,98.05 7.20,98.40"/>
    </edge>
    <edge id=":J1_7" function="internal">
        <lane id=":J1_7_0" index="0" speed="13.89" length="14.40" shape="1.60,92.80 1.60,107.20"/>
    </edge>
    <edge id=":J1_8" function="internal">
        <lane id=":J1_8_0" index="0" speed="8.00" length="4.07" shape="1.60,92.80 1.05,96.65 0.96,96.80"/>
    </edge>
    <edge id=":J1_13" function="internal">
        <lane id=":J1_13_0" index="0" speed="8.00" length="10.13" shape="0.96,96.80 -0.60,99.40 -3.35,101.05 -7.20,101.60"/>
    </edge>
    <edge id=":J1_9" function="internal">
        <lane id=":J1_9_0" index="0" speed="6.51" length="9.03" shape="-7.20,98.40 -4.75,98.05 -3.00,97.00 -1.95,95.25 -1.60,92.80"/>
    </edge>
    <edge id=":J1_10" function="internal">
        <lane id=":J1_10_0" index="0" speed="13.89" length="14.40" shape="-7.20,98.40 7.20,98.40"/>
    </edge>
    <edge id=":J1_11" function="internal">
        <lane id=":J1_11_0" index="0" speed="8.00" length="14.19" shape="-7.20,98.40 -3.35,98.95 -0.60,100.60 1.05,103.35 1.60,107.20"/>
    </edge>
    <edge id=":J12_0" function="internal">
        <lane id=":J12_0_0" index="0" speed="6.51" length="9.03" shape="98.40,7.20 98.05,4.75 97.00,3.00 95.25,1.95 92.80,1.60"/>
    </edge>
    <edge id=":J12_1" function="internal">
        <lane id=":J12_1_0" index="0" speed="13.89" length="14.40" shape="98.40,7.20 98.40,-7.20"/>
    </edge>
    <edge id=":J12_2" function="internal">
        <lane id=":J12_2_0" index="0" speed="8.00" length="4.07" shape="98.40,7.20 98.95,3.35 99.04,3.20"/>
    </edge>
    <edge id=":J12_12" function="internal">
        <lane id=":J12_12_0" index="0" speed="8.00" length="10.13" shape="99.04,3.20 100.60,0.60 103.35,-1.05 107.20,-1.60"/>
    </edge>
    <edge id=":J12_3" function="internal">
        <lane id=":J12_3_0" index="0" speed="6.51" length="9.03" shape="107.20,1.60 104.75,1.95 103.00,3.00 101.95,4.75 101.60,7.20"/>
    </edge>
    <edge id=":J12_4" function="internal">
        <lane id=":J12_4_0" index="0" speed="13.89" length="14.40" shape="107.20,1.60 92.80,1.60"/>
    </edge>
    <edge id=":J12_5" function="internal">
        <lane id=":J12_5_0" index="0" speed="8.00" length="14.19" shape="107.20,1.60 103.35,1.05 100.60,-0.60 98.95,-3.35 98.40,-7.20"/>
    </edge>
    <edge id=":J12_6" function="internal">
        <lane id=":J12_6_0" index="0" speed="6.51" length="9.03" shape="101.60,-7.20 101.95,-4.75 103.00,-3.00 104.75,-1.95 107.20,-1.60"/>
    </edge>
    <edge id=":J12_7" function="internal">
        <lane id=":J12_7_0" index="0" speed="13.89" length="14.40" shape="101.60,-7.20 101.60,7.20"/>
    </edge>
    <edge id=":J12_8" function="internal">
        <lane id=":J12_8_0" index="0" speed="8.00" length="4.07" shape="101.60,-7.20 101.05,-3.35 100.96,-3.20"/>
    </edge>
    <edge id=":J12_13" function="internal">
        <lane id=":J12_13_0" index="0" speed="8.00" length="10.13" shape="100.96,-3.20 99.40,-0.60 96.65,1.05 92.80,1.60"/>
    </edge>
    <edge id=":J12_9" function="internal">
        <lane id=":J12_9_0" index="0" speed="6.51" length="9.03" shape="92.80,-1.60 95.25,-1.95 97.00,-3.00 98.05,-4.75 98.40,-7.20"/>
    </edge>
    <edge id=":J12_10" function="internal">
        <lane id=":J12_10_0" index="0" speed="13.89" length="14.40" shape="92.80,-1.60 107.20,-1.60"/>
    </edge>
    <edge id=":J12_11" function="internal">
        <lane id=":J12_11_0" index="0" speed="8.00" length="14.19" shape="92.80,-1.60 96.65,-1.05 99.40,0.60 101.05,3.35 101.60,7.20"/>
    </edge>
    <edge id=":J13_0" function="internal">
        <lane id=":J13_0_0" index="0" speed="6.51" length="9.03" shape="198.40,7.20 198.05,4.75 197.00,3.00 195.25,1.95 192.80,1.60"/>
    </edge>
    <edge id=":J13_1" function="internal">
        <lane id=":J13_1_0" index="0" speed="13.89" length="14.40" shape="198.40,7.20 198.40,-7.20"/>
    </edge>
    <edge id=":J13_2" function="internal">
        <lane id=":J13_2_0" index="0" speed="8.00" length="4.07" shape="198.40,7.20 198.95,3.35 199.04,3.20"/>
    </edge>
    <edge id=":J13_12" function="internal">
        <lane id=":J13_12_0" index="0" speed="8.00" length="10.13" shape="199.04,3.20 200.60,0.60 203.35,-1.05 207.20,-1.60"/>
    </edge>
    <edge id=":J13_3" function="internal">
        <lane id=":J13_3_0" index="0" speed="6.51" length="9.03" shape="207.20,1.60 204.75,1.95 203.00,3.00 201.95,4.75 201.60,7.20"/>
    </edge>
    <edge id=":J13_4" function="internal">
        <lane id=":J13_4_0" index="0" speed="13.89" length="14.40" shape="207.20,1.60 192.80,1.60"/>
    </edge>
    <edge id=":J13_5" function="internal">
        <lane id=":J13_5_0" index="0" speed="8.00" length="14.19" shape="207.20,1.60 203.35,1.05 200.60,-0.60 198.95,-3.35 198.40,-7.20"/>
    </edge>
    <edge id=":J13_6" function="internal">
        <lane id=":J13_6_0" index="0" speed="6.51" length="9.03" shape="201.60,-7.20 201.95,-4.75 203.00,-3.00 204.75,-1.95 207.20,-1.60"/>
    </edge>
    <edge id=":J13_7" function="internal">
        <lane id=":J13_7_0" index="0" speed="13.89" length="14.40" shape="201.60,-7.20 201.60,7.20"/>
    </edge>
    <edge id=":J13_8" function="internal">
        <lane id=":J13_8_0" index="0" speed="8.00" length="4.07" shape="201.60,-7.20 201.05,-3.35 200.96,-3.20"/>
    </edge>
    <edge id=":J13_13" function="internal">
        <lane id=":J13_13_0" index="0" speed="8.00" length="10.13" shape="200.96,-3.20 199.40,-0.60 196.65,1.05 192.80,1.60"/>
    </edge>
    <edge id=":J13_9" function="internal">
        <lane id=":J13_9_0" index="0" speed="6.51" length="9.03" shape="192.80,-1.60 195.25,-1.95 197.00,-3.00 198.05,-4.75 198.40,-7.20"/>
    </edge>
    <edge id=":J13_10" function="internal">
        <lane id=":J13_10_0" index="0" speed="13.89" length="14.40" shape="192.80,-1.60 207.20,-1.60"/>
    </edge>
    <edge id=":J13_11" function="internal">
        <lane id=":J13_11_0" index="0" speed="8.00" length="14.19" shape="192.80,-1.60 196.65,-1.05 199.40,0.60 201.05,3.35 201.60,7.20"/>
    </edge>
    <edge id=":J14_0" function="internal">
        <lane id=":J14_0_0" index="0" speed="6.51" length="9.03" shape="298.40,7.20 298.05,4.75 297.00,3.00 295.25,1.95 292.80,1.60"/>
    </edge>
    <edge id=":J14_1" function="internal">
        <lane id=":J14_1_0" index="0" speed="13.89" length="14.40" shape="298.40,7.20 298.40,-7.20"/>
    </edge>
    <edge id=":J14_2" function="internal">
        <lane id=":J14_2_0" index="0" speed="8.00" length="4.07" shape="298.40,7.20 298.95,3.35 299.04,3.20"/>
    </edge>
    <edge id=":J14_12" function="internal">
        <lane id=":J14_12_0" index="0" speed="8.00" length="10.13" shape="299.04,3.20 300.60,0.60 303.35,-1.05 307.20,-1.60"/>
    </edge>
    <edge id=":J14_3" function="internal">
        <lane id=":J14_3_0" index="0" speed="6.51" length="9.03" shape="307.20,1.60 304.75,1.95 303.00,3.00 301.95,4.75 301.60,7.20"/>
    </edge>
    <edge id=":J14_4" function="internal">
        <lane id=":J14_4_0" index="0" speed="13.89" length="14.40" shape="307.20,1.60 292.80,1.60"/>
    </edge>
    <edge id=":J14_5" function="internal">
        <lane id=":J14_5_0" index="0" speed="8.00" length="14.19" shape="307.20,1.60 303.35,1.05 300.60,-0.60 298.95,-3.35 298.40,-7.20"/>
    </edge>
    <edge id=":J14_6" function="internal">
        <lane id=":J14_6_0" index="0" speed="6.51" length="9.03" shape="301.60,-7.20 301.95,-4.75 303.00,-3.00 304.75,-1.95 307.20,-1.60"/>
    </edge>
    <edge id=":J14_7" function="internal">
        <lane id=":J14_7_0" index="0" speed="13.89" length="14.40" shape="301.60,-7.20 301.60,7.20"/>
    </edge>
    <edge id=":J14_8" function="internal">
        <lane id=":J14_8_0" index="0" speed="8.00" length="4.07" shape="301.60,-7.20 301.05,-3.35 300.96,-3.20"/>
    </edge>
    <edge id=":J14_13" function="internal">
        <lane id=":J14_13_0" index="0" speed="8.00" length="10.13" shape="300.96,-3.20 299.40,-0.60 296.65,1.05 292.80,1.60"/>
    </edge>
    <edge id=":J14_9" function="internal">
        <lane id=":J14_9_0" index="0" speed="6.51" length="9.03" shape="292.80,-1.60 295.25,-1.95 297.00,-3.00 298.05,-4.75 298.40,-7.20"/>
    </edge>
    <edge id=":J14_10" function="internal">
        <lane id=":J14_10_0" index="0" speed="13.89" length="14.40" shape="292.80,-1.60 307.20,-1.60"/>
    </edge>
    <edge id=":J14_11" function="internal">
        <lane id=":J14_11_0" index="0" speed="8.00" length="14.19" shape="292.80,-1.60 296.65,-1.05 299.40,0.60 301.05,3.35 301.60,7.20"/>
    </edge>
    <edge id=":J17_0" function="internal">
        <lane id=":J17_0_0" index="0" speed="6.51" length="9.03" shape="98.40,-92.80 98.05,-95.25 97.00,-97.00 95.25,-98.05 92.80,-98.40"/>
    </edge>
    <edge id=":J17_1" function="internal">
        <lane id=":J17_1_0" index="0" speed="13.89" length="14.40" shape="98.40,-92.80 98.40,-107.20"/>
    </edge>
    <edge id=":J17_2" function="internal">
        <lane id=":J17_2_0" index="0" speed="8.00" length="4.07" shape="98.40,-92.80 98.95,-96.65 99.04,-96.80"/>
    </edge>
    <edge id=":J17_12" function="internal">
        <lane id=":J17_12_0" index="0" speed="8.00" length="10.13" shape="99.04,-96.80 100.60,-99.40 103.35,-101.05 107.20,-101.60"/>
    </edge>
    <edge id=":J17_3" function="internal">
        <lane id=":J17_3_0" index="0" speed="6.51" length="9.03" shape="107.20,-98.40 104.75,-98.05 103.00,-97.00 101.95,-95.25 101.60,-92.80"/>
    </edge>
    <edge id=":J17_4" function="internal">
        <lane id=":J17_4_0" index="0" speed="13.89" length="14.40" shape="107.20,-98.40 92.80,-98.40"/>
    </edge>
    <edge id=":J17_5" function="internal">
        <lane id=":J17_5_0" index="0" speed="8.00" length="14.19" shape="107.20,-98.40 103.35,-98.95 100.60,-100.60 98.95,-103.35 98.40,-107.20"/>
    </edge>
    <edge id=":J17_6" function="internal">
        <lane id=":J17_6_0" index="0" speed="6.51" length="9.03" shape="101.60,-107.20 101.95,-104.75 103.00,-103.00 104.75,-101.95 107.20,-101.60"/>
    </edge>
    <edge id=":J17_7" function="internal">
        <lane id=":J17_7_0" index="0" speed="13.89" length="14.40" shape="101.60,-107.20 101.60,-92.80"/>
    </edge>
    <edge id=":J17_8" function="internal">
        <lane id=":J17_8_0" index="0" speed="8.00" length="4.07" shape="101.60,-107.20 101.05,-103.35 100.96,-103.20"/>
    </edge>
    <edge id=":J17_13" function="internal">
        <lane id=":J17_13_0" index="0" speed="8.00" length="10.13" shape="100.96,-103.20 99.40,-100.60 96.65,-98.95 92.80,-98.40"/>
    </edge>
    <edge id=":J17_9" function="internal">
        <lane id=":J17_9_0" index="0" speed="6.51" length="9.03" shape="92.80,-101.60 95.25,-101.95 97.00,-103.00 98.05,-104.75 98.40,-107.20"/>
    </edge>
    <edge id=":J17_10" function="internal">
        <lane id=":J17_10_0" index="0" speed="13.89" length="14.40" shape="92.80,-101.60 107.20,-101.60"/>
    </edge>
    <edge id=":J17_11" function="internal">
        <lane id=":J17_11_0" index="0" speed="8.00" length="14.19" shape="92.80,-101.60 96.65,-101.05 99.40,-99.40 101.05,-96.65 101.60,-92.80"/>
    </edge>
    <edge id=":J18_0" function="internal">
        <lane id=":J18_0_0" index="0" speed="6.51" length="9.03" shape="198.40,-92.80 198.05,-95.25 197.00,-97.00 195.25,-98.05 192.80,-98.40"/>
    </edge>
    <edge id=":J18_1" function="internal">
        <lane id=":J18_1_0" index="0" speed="13.89" length="14.40" shape="198.40,-92.80 198.40,-107.20"/>
    </edge>
    <edge id=":J18_2" function="internal">
        <lane id=":J18_2_0" index="0" speed="8.00" length="4.07" shape="198.40,-92.80 198.95,-96.65 199.04,-96.80"/>
    </edge>
    <edge id=":J18_12" function="internal">
        <lane id=":J18_12_0" index="0" speed="8.00" length="10.13" shape="199.04,-96.80 200.60,-99.40 203.35,-101.05 207.20,-101.60"/>
    </edge>
    <edge id=":J18_3" function="internal">
        <lane id=":J18_3_0" index="0" speed="6.51" length="9.03" shape="207.20,-98.40 204.75,-98.05 203.00,-97.00 201.95,-95.25 201.60,-92.80"/>
    </edge>
    <edge id=":J18_4" function="internal">
        <lane id=":J18_4_0" index="0" speed="13.89" length="14.40" shape="207.20,-98.40 192.80,-98.40"/>
    </edge>
    <edge id=":J18_5" function="internal">
        <lane id=":J18_5_0" index="0" speed="8.00" length="14.19" shape="207.20,-98.40 203.35,-98.95 200.60,-100.60 198.95,-103.35 198.40,-107.20"/>
    </edge>
    <edge id=":J18_6" function="internal">
        <lane id=":J18_6_0" index="0" speed="6.51" length="9.03" shape="201.60,-107.20 201.95,-104.75 203.00,-103.00 204.75,-101.95 207.20,-101.60"/>
    </edge>
    <edge id=":J18_7" function="internal">
        <lane id=":J18_7_0" index="0" speed="13.89" length="14.40" shape="201.60,-107.20 201.60,-92.80"/>
    </edge>
    <edge id=":J18_8" function="internal">
        <lane id=":J18_8_0" index="0" speed="8.00" length="4.07" shape="201.60,-107.20 201.05,-103.35 200.96,-103.20"/>
    </edge>
    <edge id=":J18_13" function="internal">
        <lane id=":J18_13_0" index="0" speed="8.00" length="10.13" shape="200.96,-103.20 199.40,-100.60 196.65,-98.95 192.80,-98.40"/>
    </edge>
    <edge id=":J18_9" function="internal">
        <lane id=":J18_9_0" index="0" speed="6.51" length="9.03" shape="192.80,-101.60 195.25,-101.95 197.00,-103.00 198.05,-104.75 198.40,-107.20"/>
    </edge>
    <edge id=":J18_10" function="internal">
        <lane id=":J18_10_0" index="0" speed="13.89" length="14.40" shape="192.80,-101.60 207.20,-101.60"/>
    </edge>
    <edge id=":J18_11" function="internal">
        <lane id=":J18_11_0" index="0" speed="8.00" length="14.19" shape="192.80,-101.60 196.65,-101.05 199.40,-99.40 201.05,-96.65 201.60,-92.80"/>
    </edge>
    <edge id=":J19_0" function="internal">
        <lane id=":J19_0_0" index="0" speed="6.51" length="9.03" shape="298.40,-92.80 298.05,-95.25 297.00,-97.00 295.25,-98.05 292.80,-98.40"/>
    </edge>
    <edge id=":J19_1" function="internal">
        <lane id=":J19_1_0" index="0" speed="13.89" length="14.40" shape="298.40,-92.80 298.40,-107.20"/>
    </edge>
    <edge id=":J19_2" function="internal">
        <lane id=":J19_2_0" index="0" speed="8.00" length="4.07" shape="298.40,-92.80 298.95,-96.65 299.04,-96.80"/>
    </edge>
    <edge id=":J19_12" function="internal">
        <lane id=":J19_12_0" index="0" speed="8.00" length="10.13" shape="299.04,-96.80 300.60,-99.40 303.35,-101.05 307.20,-101.60"/>
    </edge>
    <edge id=":J19_3" function="internal">
        <lane id=":J19_3_0" index="0" speed="6.51" length="9.03" shape="307.20,-98.40 304.75,-98.05 303.00,-97.00 301.95,-95.25 301.60,-92.80"/>
    </edge>
    <edge id=":J19_4" function="internal">
        <lane id=":J19_4_0" index="0" speed="13.89" length="14.40" shape="307.20,-98.40 292.80,-98.40"/>
    </edge>
    <edge id=":J19_5" function="internal">
        <lane id=":J19_5_0" index="0" speed="8.00" length="14.19" shape="307.20,-98.40 303.35,-98.95 300.60,-100.60 298.95,-103.35 298.40,-107.20"/>
    </edge>
    <edge id=":J19_6" function="internal">
        <lane id=":J19_6_0" index="0" speed="6.51" length="9.03" shape="301.60,-107.20 301.95,-104.75 303.00,-103.00 304.75,-101.95 307.20,-101.60"/>
    </edge>
    <edge id=":J19_7" function="internal">
        <lane id=":J19_7_0" index="0" speed="13.89" length="14.40" shape="301.60,-107.20 301.60,-92.80"/>
    </edge>
    <edge id=":J19_8" function="internal">
        <lane id=":J19_8_0" index="0" speed="8.00" length="4.07" shape="301.60,-107.20 301.05,-103.35 300.96,-103.20"/>
    </edge>
    <edge id=":J19_13" function="internal">
        <lane id=":J19_13_0" index="0" speed="8.00" length="10.13" shape="300.96,-103.20 299.40,-100.60 296.65,-98.95 292.80,-98.40"/>
    </edge>
    <edge id=":J19_9" function="internal">
        <lane id=":J19_9_0" index="0" speed="6.51" length="9.03" shape="292.80,-101.60 295.25,-101.95 297.00,-103.00 298.05,-104.75 298.40,-107.20"/>
    </edge>
    <edge id=":J19_10" function="internal">
        <lane id=":J19_10_0" index="0" speed="13.89" length="14.40" shape="292.80,-101.60 307.20,-101.60"/>
    </edge>
    <edge id=":J19_11" function="internal">
        <lane id=":J19_11_0" index="0" speed="8.00" length="14.19" shape="292.80,-101.60 296.65,-101.05 299.40,-99.40 301.05,-96.65 301.60,-92.80"/>
    </edge>
    <edge id=":J2_0" function="internal">
        <lane id=":J2_0_0" index="0" speed="6.51" length="9.03" shape="-1.60,7.20 -1.95,4.75 -3.00,3.00 -4.75,1.95 -7.20,1.60"/>
    </edge>
    <edge id=":J2_1" function="internal">
        <lane id=":J2_1_0" index="0" speed="13.89" length="14.40" shape="-1.60,7.20 -1.60,-7.20"/>
    </edge>
    <edge id=":J2_2" function="internal">
        <lane id=":J2_2_0" index="0" speed="8.00" length="4.07" shape="-1.60,7.20 -1.05,3.35 -0.96,3.20"/>
    </edge>
    <edge id=":J2_12" function="internal">
        <lane id=":J2_12_0" index="0" speed="8.00" length="10.13" shape="-0.96,3.20 0.60,0.60 3.35,-1.05 7.20,-1.60"/>
    </edge>
    <edge id=":J2_3" function="internal">
        <lane id=":J2_3_0" index="0" speed="6.51" length="9.03" shape="7.20,1.60 4.75,1.95 3.00,3.00 1.95,4.75 1.60,7.20"/>
    </edge>
    <edge id=":J2_4" function="internal">
        <lane id=":J2_4_0" index="0" speed="13.89" length="14.40" shape="7.20,1.60 -7.20,1.60"/>
    </edge>
    <edge id=":J2_5" function="internal">
        <lane id=":J2_5_0" index="0" speed="8.00" length="14.19" shape="7.20,1.60 3.35,1.05 0.60,-0.60 -1.05,-3.35 -1.60,-7.20"/>
    </edge>
    <edge id=":J2_6" function="internal">
        <lane id=":J2_6_0" index="0" speed="6.51" length="9.03" shape="1.60,-7.20 1.95,-4.75 3.00,-3.00 4.75,-1.95 7.20,-1.60"/>
    </edge>
    <edge id=":J2_7" function="internal">
        <lane id=":J2_7_0" index="0" speed="13.89" length="14.40" shape="1.60,-7.20 1.60,7.20"/>
    </edge>
    <edge id=":J2_8" function="internal">
        <lane id=":J2_8_0" index="0" speed="8.00" length="4.07" shape="1.60,-7.20 1.05,-3.35 0.96,-3.20"/>
    </edge>
    <edge id=":J2_13" function="internal">
        <lane id=":J2_13_0" index="0" speed="8.00" length="10.13" shape="0.96,-3.20 -0.60,-0.60 -3.35,1.05 -7.20,1.60"/>
    </edge>
    <edge id=":J2_9" function="internal">
        <lane id=":J2_9_0" index="0" speed="6.51" length="9.03" shape="-7.20,-1.60 -4.75,-1.95 -3.00,-3.00 -1.95,-4.75 -1.60,-7.20"/>
    </edge>
    <edge id=":J2_10" function="internal">
        <lane id=":J2_10_0" index="0" speed="13.89" length="14.40" shape="-7.20,-1.60 7.20,-1.60"/>
    </edge>
    <edge id=":J2_11" function="internal">
        <lane id=":J2_11_0" index="0" speed="8.00" length="14.19" shape="-7.20,-1.60 -3.35,-1.05 -0.60,0.60 1.05,3.35 1.60,7.20"/>
    </edge>
    <edge id=":J22_0" function="internal">
        <lane id=":J22_0_0" index="0" speed="6.51" length="9.03" shape="98.40,-192.80 98.05,-195.25 97.00,-197.00 95.25,-198.05 92.80,-198.40"/>
    </edge>
    <edge id=":J22_1" function="internal">
        <lane id=":J22_1_0" index="0" speed="13.89" length="14.40" shape="98.40,-192.80 98.40,-207.20"/>
    </edge>
    <edge id=":J22_2" function="internal">
        <lane id=":J22_2_0" index="0" speed="8.00" length="4.07" shape="98.40,-192.80 98.95,-196.65 99.04,-196.80"/>
    </edge>
    <edge id=":J22_12" function="internal">
        <lane id=":J22_12_0" index="0" speed="8.00" length="10.13" shape="99.04,-196.80 100.60,-199.40 103.35,-201.05 107.20,-201.60"/>
    </edge>
    <edge id=":J22_3" function="internal">
        <lane id=":J22_3_0" index="0" speed="6.51" length="9.03" shape="107.20,-198.40 104.75,-198.05 103.00,-197.00 101.95,-195.25 101.60,-192.80"/>
    </edge>
    <edge id=":J22_4" function="internal">
        <lane id=":J22_4_0" index="0" speed="13.89" length="14.40" shape="107.20,-198.40 92.80,-198.40"/>
    </edge>
    <edge id=":J22_5" function="internal">
        <lane id=":J22_5_0" index="0" speed="8.00" length="14.19" shape="107.20,-198.40 103.35,-198.95 100.60,-200.60 98.95,-203.35 98.40,-207.20"/>
    </edge>
    <edge id=":J22_6" function="internal">
        <lane id=":J22_6_0" index="0" speed="6.51" length="9.03" shape="101.60,-207.20 101.95,-204.75 103.00,-203.00 104.75,-201.95 107.20,-201.60"/>
    </edge>
    <edge id=":J22_7" function="internal">
        <lane id=":J22_7_0" index="0" speed="13.89" length="14.40" shape="101.60,-207.20 101.60,-192.80"/>
    </edge>
    <edge id=":J22_8" function="internal">
        <lane id=":J22_8_0" index="0" speed="8.00" length="4.07" shape="101.60,-207.20 101.05,-203.35 100.96,-203.20"/>
    </edge>
    <edge id=":J22_13" function="internal">
        <lane id=":J22_13_0" index="0" speed="8.00" length="10.13" shape="100.96,-203.20 99.40,-200.60 96.65,-198.95 92.80,-198.40"/>
    </edge>
    <edge id=":J22_9" function="internal">
        <lane id=":J22_9_0" index="0" speed="6.51" length="9.03" shape="92.80,-201.60 95.25,-201.95 97.00,-203.00 98.05,-204.75 98.40,-207.20"/>
    </edge>
    <edge id=":J22_10" function="internal">
        <lane id=":J22_10_0" index="0" speed="13.89" length="14.40" shape="92.80,-201.60 107.20,-201.60"/>
    </edge>
    <edge id=":J22_11" function="internal">
        <lane id=":J22_11_0" index="0" speed="8.00" length="14.19" shape="92.80,-201.60 96.65,-201.05 99.40,-199.40 101.05,-196.65 101.60,-192.80"/>
    </edge>
    <edge id=":J23_0" function="internal">
        <lane id=":J23_0_0" index="0" speed="6.51" length="9.03" shape="198.40,-192.80 198.05,-195.25 197.00,-197.00 195.25,-198.05 192.80,-198.40"/>
    </edge>
    <edge id=":J23_1" function="internal">
        <lane id=":J23_1_0" index="0" speed="13.89" length="14.40" shape="198.40,-192.80 198.40,-207.20"/>
    </edge>
    <edge id=":J23_2" function="internal">
        <lane id=":J23_2_0" index="0" speed="8.00" length="4.07" shape="198.40,-192.80 198.95,-196.65 199.04,-196.80"/>
    </edge>
    <edge id=":J23_12" function="internal">
        <lane id=":J23_12_0" index="0" speed="8.00" length="10.13" shape="199.04,-196.80 200.60,-199.40 203.35,-201.05 207.20,-201.60"/>
    </edge>
    <edge id=":J23_3" function="internal">
        <lane id=":J23_3_0" index="0" speed="6.51" length="9.03" shape="207.20,-198.40 204.75,-198.05 203.00,-197.00 201.95,-195.25 201.60,-192.80"/>
    </edge>
    <edge id=":J23_4" function="internal">
        <lane id=":J23_4_0" index="0" speed="13.89" length="14.40" shape="207.20,-198.40 192.80,-198.40"/>
    </edge>
    <edge id=":J23_5" function="internal">
        <lane id=":J23_5_0" index="0" speed="8.00" length="14.19" shape="207.20,-198.40 203.35,-198.95 200.60,-200.60 198.95,-203.35 198.40,-207.20"/>
    </edge>
    <edge id=":J23_6" function="internal">
        <lane id=":J23_6_0" index="0" speed="6.51" length="9.03" shape="201.60,-207.20 201.95,-204.75 203.00,-203.00 204.75,-201.95 207.20,-201.60"/>
    </edge>
    <edge id=":J23_7" function="internal">
        <lane id=":J23_7_0" index="0" speed="13.89" length="14.40" shape="201.60,-207.20 201.60,-192.80"/>
    </edge>
    <edge id=":J23_8" function="internal">
        <lane id=":J23_8_0" index="0" speed="8.00" length="4.07" shape="201.60,-207.20 201.05,-203.35 200.96,-203.20"/>
    </edge>
    <edge id=":J23_13" function="internal">
        <lane id=":J23_13_0" index="0" speed="8.00" length="10.13" shape="200.96,-203.20 199.40,-200.60 196.65,-198.95 192.80,-198.40"/>
    </edge>
    <edge id=":J23_9" function="internal">
        <lane id=":J23_9_0" index="0" speed="6.51" length="9.03" shape="192.80,-201.60 195.25,-201.95 197.00,-203.00 198.05,-204.75 198.40,-207.20"/>
    </edge>
    <edge id=":J23_10" function="internal">
        <lane id=":J23_10_0" index="0" speed="13.89" length="14.40" shape="192.80,-201.60 207.20,-201.60"/>
    </edge>
    <edge id=":J23_11" function="internal">
        <lane id=":J23_11_0" index="0" speed="8.00" length="14.19" shape="192.80,-201.60 196.65,-201.05 199.40,-199.40 201.05,-196.65 201.60,-192.80"/>
    </edge>
    <edge id=":J24_0" function="internal">
        <lane id=":J24_0_0" index="0" speed="6.51" length="9.03" shape="298.40,-192.80 298.05,-195.25 297.00,-197.00 295.25,-198.05 292.80,-198.40"/>
    </edge>
    <edge id=":J24_1" function="internal">
        <lane id=":J24_1_0" index="0" speed="13.89" length="14.40" shape="298.40,-192.80 298.40,-207.20"/>
    </edge>
    <edge id=":J24_2" function="internal">
        <lane id=":J24_2_0" index="0" speed="8.00" length="4.07" shape="298.40,-192.80 298.95,-196.65 299.04,-196.80"/>
    </edge>
    <edge id=":J24_12" function="internal">
        <lane id=":J24_12_0" index="0" speed="8.00" length="10.13" shape="299.04,-196.80 300.60,-199.40 303.35,-201.05 307.20,-201.60"/>
    </edge>
    <edge id=":J24_3" function="internal">
        <lane id=":J24_3_0" index="0" speed="6.51" length="9.03" shape="307.20,-198.40 304.75,-198.05 303.00,-197.00 301.95,-195.25 301.60,-192.80"/>
    </edge>
    <edge id=":J24_4" function="internal">
        <lane id=":J24_4_0" index="0" speed="13.89" length="14.40" shape="307.20,-198.40 292.80,-198.40"/>
    </edge>
    <edge id=":J24_5" function="internal">
        <lane id=":J24_5_0" index="0" speed="8.00" length="14.19" shape="307.20,-198.40 303.35,-198.95 300.60,-200.60 298.95,-203.35 298.40,-207.20"/>
    </edge>
    <edge id=":J24_6" function="internal">
        <lane id=":J24_6_0" index="0" speed="6.51" length="9.03" shape="301.60,-207.20 301.95,-204.75 303.00,-203.00 304.75,-201.95 307.20,-201.60"/>
    </edge>
    <edge id=":J24_7" function="internal">
        <lane id=":J24_7_0" index="0" speed="13.89" length="14.40" shape="301.60,-207.20 301.60,-192.80"/>
    </edge>
    <edge id=":J24_8" function="internal">
        <lane id=":J24_8_0" index="0" speed="8.00" length="4.07" shape="301.60,-207.20 301.05,-203.35 300.96,-203.20"/>
    </edge>
    <edge id=":J24_13" function="internal">
        <lane id=":J24_13_0" index="0" speed="8.00" length="10.13" shape="300.96,-203.20 299.40,-200.60 296.65,-198.95 292.80,-198.40"/>
    </edge>
    <edge id=":J24_9" function="internal">
        <lane id=":J24_9_0" index="0" speed="6.51" length="9.03" shape="292.80,-201.60 295.25,-201.95 297.00,-203.00 298.05,-204.75 298.40,-207.20"/>
    </edge>
    <edge id=":J24_10" function="internal">
        <lane id=":J24_10_0" index="0" speed="13.89" length="14.40" shape="292.80,-201.60 307.20,-201.60"/>
    </edge>
    <edge id=":J24_11" function="internal">
        <lane id=":J24_11_0" index="0" speed="8.00" length="14.19" shape="292.80,-201.60 296.65,-201.05 299.40,-199.40 301.05,-196.65 301.60,-192.80"/>
    </edge>
    <edge id=":J3_0" function="internal">
        <lane id=":J3_0_0" index="0" speed="6.51" length="9.03" shape="-1.60,-92.80 -1.95,-95.25 -3.00,-97.00 -4.75,-98.05 -7.20,-98.40"/>
    </edge>
    <edge id=":J3_1" function="internal">
        <lane id=":J3_1_0" index="0" speed="13.89" length="14.40" shape="-1.60,-92.80 -1.60,-107.20"/>
    </edge>
    <edge id=":J3_2" function="internal">
        <lane id=":J3_2_0" index="0" speed="8.00" length="4.07" shape="-1.60,-92.80 -1.05,-96.65 -0.96,-96.80"/>
    </edge>
    <edge id=":J3_12" function="internal">