<?xml version="1.0" encoding="UTF-8"?>

<!-- generated on 2023-04-18 12:31:22 by Eclipse SUMO netedit Version 1.16.0
<configuration xmlns:xsi="http://www.w3.org/2001/XMLSchema-instance" xsi:noNamespaceSchemaLocation="http://sumo.dlr.de/xsd/netconvertConfiguration.xsd">

    <input>
        <sumo-net-file value="/Users/rorycoulson/Documents/Year3/S2/COMP3200_IndividualProject/SUMO_EV/ev-sumo-marl/nets/4_station_strip/4_station_strip.net.xml"/>
    </input>

    <output>
        <output-file value="/Users/rorycoulson/Documents/Year3/S2/COMP3200_IndividualProject/SUMO_EV/ev-sumo-marl/nets/4_station_strip/4_station_strip.net.xml"/>
    </output>

    <processing>
        <geometry.min-radius.fix.railways value="false"/>
        <geometry.max-grade.fix value="false"/>
        <offset.disable-normalization value="true"/>
        <lefthand value="0"/>
    </processing>

    <junctions>
        <no-turnarounds value="true"/>
        <junctions.corner-detail value="5"/>
        <junctions.limit-turn-speed value="5.50"/>
        <rectangular-lane-cut value="0"/>
    </junctions>

    <pedestrian>
        <walkingareas value="0"/>
    </pedestrian>

</configuration>
-->

<net version="1.16" junctionCornerDetail="5" limitTurnSpeed="5.50" xmlns:xsi="http://www.w3.org/2001/XMLSchema-instance" xsi:noNamespaceSchemaLocation="http://sumo.dlr.de/xsd/net_file.xsd">

    <location netOffset="0.00,0.00" convBoundary="-84.36,705.28,525.77,990.21" origBoundary="-10000000000.00,-10000000000.00,10000000000.00,10000000000.00" projParameter="!"/>

    <edge id=":J16_0" function="internal">
        <lane id=":J16_0_0" index="0" speed="13.89" length="4.29" shape="70.50,740.88 74.64,742.03"/>
    </edge>
    <edge id=":J16_1" function="internal">
        <lane id=":J16_1_0" index="0" speed="7.45" length="4.02" shape="69.75,744.00 70.89,744.30 71.64,744.64 72.27,745.19 73.02,746.10"/>
    </edge>
    <edge id=":J18_0" function="internal">
        <lane id=":J18_0_0" index="0" speed="13.89" length="9.50" shape="123.55,754.89 126.27,755.09 128.20,754.46 130.12,753.83 132.84,754.02"/>
    </edge>
    <edge id=":J18_1" function="internal">
        <lane id=":J18_1_0" index="0" speed="7.45" length="8.76" shape="123.70,758.82 126.12,757.82 127.83,757.05 129.56,756.74 132.03,757.12"/>
    </edge>
    <edge id=":J19_0" function="internal">
        <lane id=":J19_0_0" index="0" speed="7.45" length="4.83" shape="185.44,767.69 186.82,767.99 187.80,768.00 188.78,767.79 190.16,767.41"/>
    </edge>
    <edge id=":J19_1" function="internal">
        <lane id=":J19_1_0" index="0" speed="13.89" length="5.81" shape="184.64,770.79 186.32,771.10 187.50,771.09 188.69,771.01 190.41,771.12"/>
    </edge>
    <edge id=":J20_0" function="internal">
        <lane id=":J20_0_0" index="0" speed="7.45" length="8.33" shape="252.51,775.41 254.52,776.68 256.24,776.99 258.01,777.23 260.16,778.34"/>
    </edge>
    <edge id=":J20_1" function="internal">
        <lane id=":J20_1_0" index="0" speed="13.30" length="7.81" shape="250.85,778.99 253.17,779.18 254.82,779.28 256.33,779.71 258.25,780.90"/>
    </edge>
    <edge id=":J21_0" function="internal">
        <lane id=":J21_0_0" index="0" speed="13.89" length="9.48" shape="293.86,803.44 295.64,805.44 296.21,807.37 296.72,809.36 298.36,811.54"/>
    </edge>
    <edge id=":J21_1" function="internal">
        <lane id=":J21_1_0" index="0" speed="7.45" length="8.40" shape="291.94,806.00 293.65,807.63 294.32,809.17 294.51,811.01 294.78,813.51"/>
    </edge>
    <edge id=":J22_0" function="internal">
        <lane id=":J22_0_0" index="0" speed="13.89" length="3.56" shape="328.62,838.61 329.41,839.30 330.00,839.73 330.65,840.06 331.63,840.45"/>
    </edge>
    <edge id=":J22_1" function="internal">
        <lane id=":J22_1_0" index="0" speed="7.45" length="2.11" shape="330.68,845.54 330.48,843.44"/>
    </edge>
    <edge id=":J23_0" function="internal">
        <lane id=":J23_0_0" index="0" speed="7.45" length="5.47" shape="400.02,866.72 401.53,867.33 402.58,867.74 403.67,867.96 405.27,868.02"/>
    </edge>
    <edge id=":J23_1" function="internal">
        <lane id=":J23_1_0" index="0" speed="13.89" length="3.36" shape="398.88,869.70 399.73,870.17 400.20,870.67 400.66,871.21 401.45,871.80"/>
    </edge>
    <edge id=":J24_0" function="internal">
        <lane id=":J24_0_0" index="0" speed="7.45" length="8.08" shape="450.35,894.86 451.65,896.74 453.07,897.59 454.66,898.34 456.45,899.91"/>
    </edge>
    <edge id=":J24_1" function="internal">
        <lane id=":J24_1_0" index="0" speed="13.89" length="8.00" shape="447.43,897.55 449.56,898.63 451.06,899.35 452.39,900.27 454.00,901.96"/>
    </edge>

    <edge id="E12" from="J14" to="J16" priority="-1" spreadType="center" shape="-84.36,705.28 -14.22,722.15 67.67,741.85">
        <lane id="E12_0" index="0" speed="13.89" length="158.89" shape="-83.99,703.72 -13.85,720.59 70.50,740.88"/>
        <lane id="E12_1" index="1" speed="13.89" length="158.89" shape="-84.73,706.84 -14.59,723.71 69.75,744.00"/>
    </edge>
    <edge id="E12.104" from="J16" to="J18" priority="-1">
        <lane id="E12.104_0" index="0" speed="13.89" length="50.58" shape="74.64,742.03 123.55,754.89"/>
    </edge>
    <edge id="E12.191" from="J18" to="J19" priority="-1">
        <lane id="E12.191_0" index="0" speed="13.89" length="54.35" shape="132.84,754.02 185.44,767.69"/>
        <lane id="E12.191_1" index="1" speed="13.89" length="54.35" shape="132.03,757.12 184.64,770.79"/>
    </edge>
    <edge id="E12.253" from="J19" to="J20" priority="-1">
        <lane id="E12.253_0" index="0" speed="13.89" length="60.95" shape="190.41,771.12 250.85,778.99"/>
    </edge>
    <edge id="E12.323" from="J20" to="J21" priority="-1">
        <lane id="E12.323_0" index="0" speed="13.89" length="42.02" shape="260.16,778.34 293.86,803.44"/>
        <lane id="E12.323_1" index="1" speed="13.89" length="42.02" shape="258.25,780.90 291.94,806.00"/>
    </edge>
    <edge id="E12.404" from="J21" to="J22" priority="-1">
        <lane id="E12.404_0" index="0" speed="13.89" length="40.60" shape="298.36,811.54 328.62,838.61"/>
    </edge>
    <edge id="E12.473" from="J22" to="J23" priority="-1">
        <lane id="E12.473_0" index="0" speed="13.89" length="73.27" shape="331.63,840.45 400.02,866.72"/>
        <lane id="E12.473_1" index="1" speed="13.89" length="73.27" shape="330.48,843.44 398.88,869.70"/>
    </edge>
    <edge id="E12.536" from="J23" to="J24" priority="-1">
        <lane id="E12.536_0" index="0" speed="13.89" length="52.70" shape="401.45,871.80 447.43,897.55"/>
    </edge>
    <edge id="E12.632" from="J24" to="J15" priority="-1">
        <lane id="E12.632_0" index="0" speed="13.89" length="113.74" shape="456.45,899.91 529.45,987.13"/>
        <lane id="E12.632_1" index="1" speed="13.89" length="113.74" shape="454.00,901.96 527.00,989.18"/>
    </edge>
    <edge id="E13" from="J16" to="J18" priority="-1" length="50.00" shape="67.67,741.85 73.90,749.83 117.70,762.57 130.18,758.29">
        <lane id="E13_0" index="0" speed="1.00" length="50.00" shape="73.02,746.10 74.84,748.44 117.66,760.89 123.70,758.82"/>
    </edge>
    <edge id="E14" from="J19" to="J20" priority="-1" length="50.00" shape="181.08,771.52 195.12,767.72 247.65,773.16 254.97,779.80">
        <lane id="E14_0" index="0" speed="1.00" length="50.00" shape="190.16,767.41 194.99,766.10 248.34,771.62 252.51,775.41"/>
    </edge>
    <edge id="E15" from="J21" to="J22" priority="-1" length="50.00" shape="292.28,808.25 293.94,818.24 325.48,847.08 335.82,847.20">
        <lane id="E15_0" index="0" speed="1.00" length="50.00" shape="294.78,813.51 295.43,817.43 326.11,845.49 330.68,845.54"/>
    </edge>
    <edge id="E16" from="J23" to="J24" priority="-1" length="50.00" shape="394.51,869.74 408.67,869.58 447.26,891.99 451.81,901.84">
        <lane id="E16_0" index="0" speed="1.00" length="50.00" shape="405.27,868.02 409.09,867.98 448.50,890.86 450.35,894.86"/>
    </edge>

    <junction id="J14" type="dead_end" x="-84.36" y="705.28" incLanes="" intLanes="" shape="-85.11,708.39 -83.61,702.17"/>
    <junction id="J15" type="dead_end" x="525.77" y="990.21" incLanes="E12.632_0 E12.632_1" intLanes="" shape="530.68,986.10 525.77,990.21"/>
    <junction id="J16" type="priority" x="67.67" y="741.85" incLanes="E12_0 E12_1" intLanes=":J16_0_0 :J16_1_0" shape="71.76,747.08 74.28,745.12 73.61,744.09 73.52,743.77 73.59,743.58 73.83,743.51 74.23,743.58 75.04,740.48 70.87,739.33 69.38,745.55 70.41,745.85 70.76,746.02 71.06,746.26 71.37,746.61">
        <request index="0" response="00" foes="00" cont="0"/>
        <request index="1" response="00" foes="00" cont="0"/>
    </junction>
    <junction id="J18" type="priority" x="130.18" y="758.29" incLanes="E12.104_0 E13_0" intLanes=":J18_0_0 :J18_1_0" shape="131.63,758.67 133.24,752.47 129.83,752.44 127.37,753.39 125.90,753.61 123.96,753.35 123.15,756.44 123.18,757.31 124.22,760.34 126.92,759.14 127.89,758.68 128.87,758.40 130.05,758.37">
        <request index="0" response="00" foes="00" cont="0"/>
        <request index="1" response="00" foes="00" cont="0"/>
    </junction>
    <junction id="J19" type="priority" x="181.08" y="771.52" incLanes="E12.191_0 E12.191_1" intLanes=":J19_0_0 :J19_1_0" shape="190.20,772.71 190.62,769.54 190.58,768.95 189.74,765.86 188.31,766.27 187.79,766.38 187.28,766.40 186.66,766.33 185.84,766.15 184.23,772.34 186.41,772.68 187.19,772.66 187.98,772.61 188.93,772.60">
        <request index="0" response="00" foes="00" cont="0"/>
        <request index="1" response="00" foes="00" cont="0"/>
    </junction>
    <junction id="J20" type="priority" x="256.09" y="781.29" incLanes="E14_0 E12.253_0" intLanes=":J20_0_0 :J20_1_0" shape="257.29,782.19 261.12,777.05 258.39,775.85 257.26,775.75 256.15,775.62 254.95,775.20 253.59,774.22 251.44,776.59 251.89,777.13 251.90,777.30 251.76,777.40 251.48,777.44 251.06,777.41 250.65,780.58 253.27,780.74 254.21,780.78 255.10,780.96 256.08,781.39">
        <request index="0" response="00" foes="00" cont="0"/>
        <request index="1" response="00" foes="00" cont="0"/>
    </junction>
    <junction id="J21" type="priority" x="292.28" y="808.25" incLanes="E12.323_0 E12.323_1" intLanes=":J21_0_0 :J21_1_0" shape="293.20,813.77 296.35,813.25 296.34,812.48 296.46,812.32 296.65,812.31 296.93,812.45 297.29,812.73 299.42,810.35 297.51,807.45 297.22,806.13 296.90,804.83 296.22,803.52 294.81,802.16 290.99,807.29 292.66,809.13 292.91,810.03 292.99,811.04 293.03,812.26">
        <request index="0" response="00" foes="00" cont="0"/>
        <request index="1" response="00" foes="00" cont="0"/>
    </junction>
    <junction id="J22" type="priority" x="335.82" y="847.20" incLanes="E12.404_0 E15_0" intLanes=":J22_0_0 :J22_1_0" shape="329.91,844.93 332.20,838.95 331.18,838.54 330.84,838.36 330.52,838.14 330.16,837.84 329.68,837.42 327.55,839.80 329.96,842.11 330.66,842.91 331.01,843.49 331.02,843.83 330.70,843.94 330.66,847.14">
        <request index="0" response="00" foes="00" cont="0"/>
        <request index="1" response="00" foes="00" cont="0"/>
    </junction>
    <junction id="J23" type="priority" x="394.51" y="869.74" incLanes="E12.473_0 E12.473_1" intLanes=":J23_0_0 :J23_1_0" shape="400.67,873.19 402.24,870.40 401.99,869.99 402.35,869.84 403.01,869.73 404.00,869.65 405.29,869.62 405.26,866.42 403.48,866.31 402.87,866.15 402.27,865.92 401.56,865.61 400.60,865.22 398.30,871.20 399.26,871.79 399.52,872.12 399.78,872.46 400.13,872.82">
        <request index="0" response="00" foes="00" cont="0"/>
        <request index="1" response="00" foes="00" cont="0"/>
    </junction>
    <junction id="J24" type="priority" x="451.81" y="901.84" incLanes="E16_0 E12.536_0" intLanes=":J24_0_0 :J24_1_0" shape="452.77,902.99 457.68,898.88 455.43,897.14 454.43,896.73 453.49,896.28 452.62,895.52 451.80,894.19 448.90,895.53 449.10,896.20 449.04,896.37 448.87,896.41 448.60,896.34 448.22,896.16 446.65,898.95 449.14,900.17 450.03,900.59 450.85,901.09 451.72,901.84">
        <request index="0" response="00" foes="00" cont="0"/>
        <request index="1" response="00" foes="00" cont="0"/>
    </junction>

    <connection from="E12" to="E12.104" fromLane="0" toLane="0" via=":J16_0_0" dir="s" state="M"/>
    <connection from="E12" to="E13" fromLane="1" toLane="0" via=":J16_1_0" dir="L" state="M"/>
    <connection from="E12.104" to="E12.191" fromLane="0" toLane="0" via=":J18_0_0" dir="s" state="M"/>
    <connection from="E12.191" to="E14" fromLane="0" toLane="0" via=":J19_0_0" dir="R" state="M"/>
    <connection from="E12.191" to="E12.253" fromLane="1" toLane="0" via=":J19_1_0" dir="s" state="M"/>
    <connection from="E12.253" to="E12.323" fromLane="0" toLane="1" via=":J20_1_0" dir="s" state="M"/>
    <connection from="E12.323" to="E12.404" fromLane="0" toLane="0" via=":J21_0_0" dir="s" state="M"/>
    <connection from="E12.323" to="E15" fromLane="1" toLane="0" via=":J21_1_0" dir="L" state="M"/>
    <connection from="E12.404" to="E12.473" fromLane="0" toLane="0" via=":J22_0_0" dir="s" state="M"/>
    <connection from="E12.473" to="E16" fromLane="0" toLane="0" via=":J23_0_0" dir="R" state="M"/>
    <connection from="E12.473" to="E12.536" fromLane="1" toLane="0" via=":J23_1_0" dir="s" state="M"/>
    <connection from="E12.536" to="E12.632" fromLane="0" toLane="1" via=":J24_1_0" dir="s" state="M"/>
    <connection from="E13" to="E12.191" fromLane="0" toLane="1" via=":J18_1_0" dir="s" state="M"/>
    <connection from="E14" to="E12.323" fromLane="0" toLane="0" via=":J20_0_0" dir="s" state="M"/>
    <connection from="E15" to="E12.473" fromLane="0" toLane="1" via=":J22_1_0" dir="s" state="M"/>
    <connection from="E16" to="E12.632" fromLane="0" toLane="0" via=":J24_0_0" dir="s" state="M"/>

    <connection from=":J16_0" to="E12.104" fromLane="0" toLane="0" dir="s" state="M"/>
    <connection from=":J16_1" to="E13" fromLane="0" toLane="0" dir="L" state="M"/>
    <connection from=":J18_0" to="E12.191" fromLane="0" toLane="0" dir="s" state="M"/>
    <connection from=":J18_1" to="E12.191" fromLane="0" toLane="1" dir="s" state="M"/>
    <connection from=":J19_0" to="E14" fromLane="0" toLane="0" dir="R" state="M"/>
    <connection from=":J19_1" to="E12.253" fromLane="0" toLane="0" dir="s" state="M"/>
    <connection from=":J20_0" to="E12.323" fromLane="0" toLane="0" dir="s" state="M"/>
    <connection from=":J20_1" to="E12.323" fromLane="0" toLane="1" dir="s" state="M"/>
    <connection from=":J21_0" to="E12.404" fromLane="0" toLane="0" dir="s" state="M"/>
    <connection from=":J21_1" to="E15" fromLane="0" toLane="0" dir="L" state="M"/>
    <connection from=":J22_0" to="E12.473" fromLane="0" toLane="0" dir="s" state="M"/>
    <connection from=":J22_1" to="E12.473" fromLane="0" toLane="1" dir="s" state="M"/>
    <connection from=":J23_0" to="E16" fromLane="0" toLane="0" dir="R" state="M"/>
    <connection from=":J23_1" to="E12.536" fromLane="0" toLane="0" dir="s" state="M"/>
    <connection from=":J24_0" to="E12.632" fromLane="0" toLane="0" dir="s" state="M"/>
    <connection from=":J24_1" to="E12.632" fromLane="0" toLane="1" dir="s" state="M"/>
    <additional>
        <chargingStation chargeDelay="2" chargeInTransit="0" power="100000" efficiency="0.95" startPos="45" endPos="50" id="1" lane="E13_0" />
        <chargingStation chargeDelay="2" chargeInTransit="0" power="100000" efficiency="0.95" startPos="45" endPos="50" id="2" lane="E14_0"/>
        <chargingStation chargeDelay="2" chargeInTransit="0" power="100000" efficiency="0.95" startPos="45" endPos="50" id="3" lane="E15_0"/>
        <chargingStation chargeDelay="2" chargeInTransit="0" power="100000" efficiency="0.95" startPos="45" endPos="50" id="4" lane="E16_0"/>
    </additional>
</net>
